/*--------------------------------*- C++ -*----------------------------------*\
| =========                 |                                                 |
| \\      /  F ield         | OpenFOAM: The Open Source CFD Toolbox           |
|  \\    /   O peration     | Version:  5.0                                   |
|   \\  /    A nd           | Web:      www.OpenFOAM.org                      |
|    \\/     M anipulation  |                                                 |
\*---------------------------------------------------------------------------*/
FoamFile
{
    version     2.0;
    format      ascii;
    class       extendedFeatureEdgeMesh;
    location    "constant/extendedFeatureEdgeMesh";
    object      buildings.extendedFeatureEdgeMesh;
}
// * * * * * * * * * * * * * * * * * * * * * * * * * * * * * * * * * * * * * //

// points

804
(
(92.8 18.15 18.9)
(85 18.15 18.9)
(88.9 26.3 17)
(88.9 10 17)
(92.35 25.85 10)
(92.35 10.45 10)
(85.45 10.45 10)
(85.45 25.85 10)
(91.8 17.9 7)
(91.3 17.9 7)
(91.3 18.4 7)
(91.8 18.4 7)
(91.8 24.8 7)
(91.3 24.8 7)
(91.8 25.3 7)
(91.3 25.3 7)
(86.5 24.8 7)
(86 24.8 7)
(86 25.3 7)
(86.5 25.3 7)
(86.5 17.9 7)
(86 17.9 7)
(86 18.4 7)
(86.5 18.4 7)
(91.8 11 7)
(91.3 11 7)
(91.3 11.5 7)
(91.8 11.5 7)
(86.5 11 7)
(86 11 7)
(86 11.5 7)
(86.5 11.5 7)
(92.8 41.15 18.9)
(85 41.15 18.9)
(88.9 49.3 17)
(88.9 33 17)
(92.35 48.85 10)
(92.35 33.45 10)
(85.45 33.45 10)
(85.45 48.85 10)
(91.8 40.9 7)
(91.3 40.9 7)
(91.3 41.4 7)
(91.8 41.4 7)
(91.8 47.8 7)
(91.3 47.8 7)
(91.8 48.3 7)
(91.3 48.3 7)
(86.5 47.8 7)
(86 47.8 7)
(86 48.3 7)
(86.5 48.3 7)
(86.5 40.9 7)
(86 40.9 7)
(86 41.4 7)
(86.5 41.4 7)
(91.8 34 7)
(91.3 34 7)
(91.3 34.5 7)
(91.8 34.5 7)
(86.5 34 7)
(86 34 7)
(86 34.5 7)
(86.5 34.5 7)
(92.8 64.15 18.9)
(85 64.15 18.9)
(88.9 72.3 17)
(88.9 56 17)
(92.35 71.85 10)
(92.35 56.45 10)
(85.45 56.45 10)
(85.45 71.85 10)
(91.8 63.9 7)
(91.3 63.9 7)
(91.3 64.4 7)
(91.8 64.4 7)
(91.8 70.8 7)
(91.3 70.8 7)
(91.8 71.3 7)
(91.3 71.3 7)
(86.5 70.8 7)
(86 70.8 7)
(86 71.3 7)
(86.5 71.3 7)
(86.5 63.9 7)
(86 63.9 7)
(86 64.4 7)
(86.5 64.4 7)
(91.8 57 7)
(91.3 57 7)
(91.3 57.5 7)
(91.8 57.5 7)
(86.5 57 7)
(86 57 7)
(86 57.5 7)
(86.5 57.5 7)
(92.8 85.15 18.9)
(85 85.15 18.9)
(88.9 93.3 17)
(88.9 77 17)
(92.35 92.85 10)
(92.35 77.45 10)
(85.45 77.45 10)
(85.45 92.85 10)
(91.8 84.9 7)
(91.3 84.9 7)
(91.3 85.4 7)
(91.8 85.4 7)
(91.8 91.8 7)
(91.3 91.8 7)
(91.8 92.3 7)
(91.3 92.3 7)
(86.5 91.8 7)
(86 91.8 7)
(86 92.3 7)
(86.5 92.3 7)
(86.5 84.9 7)
(86 84.9 7)
(86 85.4 7)
(86.5 85.4 7)
(91.8 78 7)
(91.3 78 7)
(91.3 78.5 7)
(91.8 78.5 7)
(86.5 78 7)
(86 78 7)
(86 78.5 7)
(86.5 78.5 7)
(117.8 18.15 15.9)
(110 18.15 15.9)
(113.9 10 14)
(113.9 26.3 14)
(117.35 25.85 7)
(117.35 10.45 7)
(110.45 25.85 7)
(110.45 10.45 7)
(117.6 72.4 10.1)
(109.1 72.4 10.1)
(113.35 72.4 11.6)
(117.6 65.7 10.1)
(105.3 65.7 7)
(107.9 65.7 14.5)
(105 65.7 11.6)
(117.3 57.5 7)
(117.3 72.1 7)
(109.4 72.1 7)
(105.3 55.3 7)
(110.5 55.3 7)
(117.6 61.6 14.5)
(117.6 65.7 11.6)
(105 55 11.6)
(107.9 55 14.5)
(110.8 55 11.6)
(117.6 57.5 11.6)
(117.8 43.15 15.9)
(110 43.15 15.9)
(113.9 35 14)
(113.9 51.3 14)
(117.35 50.85 7)
(117.35 35.45 7)
(110.45 50.85 7)
(110.45 35.45 7)
(117.6 92.4 10.1)
(109.1 92.4 10.1)
(113.35 92.4 11.6)
(117.6 85.7 10.1)
(105.3 85.7 7)
(107.9 85.7 14.5)
(105 85.7 11.6)
(117.3 77.5 7)
(117.3 92.1 7)
(109.4 92.1 7)
(105.3 75.3 7)
(110.5 75.3 7)
(117.6 81.6 14.5)
(117.6 85.7 11.6)
(105 75 11.6)
(107.9 75 14.5)
(110.8 75 11.6)
(117.6 77.5 11.6)
(135.05 10 15.9)
(135.05 17.8 15.9)
(126.9 13.9 14)
(143.2 13.9 14)
(142.75 10.45 7)
(127.35 10.45 7)
(142.75 17.35 7)
(127.35 17.35 7)
(135.05 25 15.9)
(135.05 32.8 15.9)
(126.9 28.9 14)
(143.2 28.9 14)
(142.75 25.45 7)
(127.35 25.45 7)
(142.75 32.35 7)
(127.35 32.35 7)
(135.05 40 15.9)
(135.05 47.8 15.9)
(126.9 43.9 14)
(143.2 43.9 14)
(142.75 40.45 7)
(127.35 40.45 7)
(142.75 47.35 7)
(127.35 47.35 7)
(135.05 55 15.9)
(135.05 62.8 15.9)
(126.9 58.9 14)
(143.2 58.9 14)
(142.75 55.45 7)
(127.35 55.45 7)
(142.75 62.35 7)
(127.35 62.35 7)
(135.05 70 15.9)
(135.05 77.8 15.9)
(126.9 73.9 14)
(143.2 73.9 14)
(142.75 70.45 7)
(127.35 70.45 7)
(142.75 77.35 7)
(127.35 77.35 7)
(135.05 85 15.9)
(135.05 92.8 15.9)
(126.9 88.9 14)
(143.2 88.9 14)
(142.75 85.45 7)
(127.35 85.45 7)
(142.75 92.35 7)
(127.35 92.35 7)
(162.6 27.4 10.1)
(154.1 27.4 10.1)
(158.35 27.4 11.6)
(162.6 20.7 10.1)
(150.3 20.7 7)
(152.9 20.7 14.5)
(150 20.7 11.6)
(162.3 12.5 7)
(162.3 27.1 7)
(154.4 27.1 7)
(150.3 10.3 7)
(155.5 10.3 7)
(162.6 16.6 14.5)
(162.6 20.7 11.6)
(150 10 11.6)
(152.9 10 14.5)
(155.8 10 11.6)
(162.6 12.5 11.6)
(157.8 63.15 15.9)
(150 63.15 15.9)
(153.9 55 14)
(153.9 71.3 14)
(157.35 70.85 7)
(157.35 55.45 7)
(150.45 70.85 7)
(150.45 55.45 7)
(150 33.2 10.1)
(158.5 33.2 10.1)
(154.25 33.2 11.6)
(150 39.9 10.1)
(162.3 39.9 7)
(159.7 39.9 14.5)
(162.6 39.9 11.6)
(150.3 48.1 7)
(150.3 33.5 7)
(158.2 33.5 7)
(162.3 50.3 7)
(157.1 50.3 7)
(150 44 14.5)
(150 39.9 11.6)
(162.6 50.6 11.6)
(159.7 50.6 14.5)
(156.8 50.6 11.6)
(150 48.1 11.6)
(157.8 86.15 15.9)
(150 86.15 15.9)
(153.9 78 14)
(153.9 94.3 14)
(157.35 93.85 7)
(157.35 78.45 7)
(150.45 93.85 7)
(150.45 78.45 7)
(177.6 27.4 10.1)
(169.1 27.4 10.1)
(173.35 27.4 11.6)
(177.6 20.7 10.1)
(165.3 20.7 7)
(167.9 20.7 14.5)
(165 20.7 11.6)
(177.3 12.5 7)
(177.3 27.1 7)
(169.4 27.1 7)
(165.3 10.3 7)
(170.5 10.3 7)
(177.6 16.6 14.5)
(177.6 20.7 11.6)
(165 10 11.6)
(167.9 10 14.5)
(170.8 10 11.6)
(177.6 12.5 11.6)
(172.8 63.15 15.9)
(165 63.15 15.9)
(168.9 55 14)
(168.9 71.3 14)
(172.35 70.85 7)
(172.35 55.45 7)
(165.45 70.85 7)
(165.45 55.45 7)
(165 33.2 10.1)
(173.5 33.2 10.1)
(169.25 33.2 11.6)
(165 39.9 10.1)
(177.3 39.9 7)
(174.7 39.9 14.5)
(177.6 39.9 11.6)
(165.3 48.1 7)
(165.3 33.5 7)
(173.2 33.5 7)
(177.3 50.3 7)
(172.1 50.3 7)
(165 44 14.5)
(165 39.9 11.6)
(177.6 50.6 11.6)
(174.7 50.6 14.5)
(171.8 50.6 11.6)
(165 48.1 11.6)
(172.8 86.15 15.9)
(165 86.15 15.9)
(168.9 78 14)
(168.9 94.3 14)
(172.35 93.85 7)
(172.35 78.45 7)
(165.45 93.85 7)
(165.45 78.45 7)
(192.6 27.4 10.1)
(184.1 27.4 10.1)
(188.35 27.4 11.6)
(192.6 20.7 10.1)
(180.3 20.7 7)
(182.9 20.7 14.5)
(180 20.7 11.6)
(192.3 12.5 7)
(192.3 27.1 7)
(184.4 27.1 7)
(180.3 10.3 7)
(185.5 10.3 7)
(192.6 16.6 14.5)
(192.6 20.7 11.6)
(180 10 11.6)
(182.9 10 14.5)
(185.8 10 11.6)
(192.6 12.5 11.6)
(187.8 63.15 15.9)
(180 63.15 15.9)
(183.9 55 14)
(183.9 71.3 14)
(187.35 70.85 7)
(187.35 55.45 7)
(180.45 70.85 7)
(180.45 55.45 7)
(180 33.2 10.1)
(188.5 33.2 10.1)
(184.25 33.2 11.6)
(180 39.9 10.1)
(192.3 39.9 7)
(189.7 39.9 14.5)
(192.6 39.9 11.6)
(180.3 48.1 7)
(180.3 33.5 7)
(188.2 33.5 7)
(192.3 50.3 7)
(187.1 50.3 7)
(180 44 14.5)
(180 39.9 11.6)
(192.6 50.6 11.6)
(189.7 50.6 14.5)
(186.8 50.6 11.6)
(180 48.1 11.6)
(187.8 86.15 15.9)
(180 86.15 15.9)
(183.9 78 14)
(183.9 94.3 14)
(187.35 93.85 7)
(187.35 78.45 7)
(180.45 93.85 7)
(180.45 78.45 7)
(109.4 65.7 10.1)
(110.5 57.5 11.6)
(109.4 85.7 10.1)
(110.5 77.5 11.6)
(154.4 20.7 10.1)
(155.5 12.5 11.6)
(158.2 39.9 10.1)
(157.1 48.1 11.6)
(169.4 20.7 10.1)
(170.5 12.5 11.6)
(173.2 39.9 10.1)
(172.1 48.1 11.6)
(184.4 20.7 10.1)
(185.5 12.5 11.6)
(188.2 39.9 10.1)
(187.1 48.1 11.6)
(92.8 10 13.5)
(92.8 26.3 13.5)
(85.45 10.45 13.5)
(85 10 13.5)
(92.35 10.45 13.5)
(92.35 25.85 13.5)
(85 26.3 13.5)
(85.45 25.85 13.5)
(88.9 21.0176 17)
(88.9 15.2824 17)
(86.5 11 10)
(86 11 10)
(86 11.5 10)
(91.3 11 10)
(91.8 11 10)
(91.3 11.5 10)
(86.5 11.5 10)
(91.8 11.5 10)
(86 17.9 10)
(86.5 17.9 10)
(91.3 17.9 10)
(91.8 17.9 10)
(91.3 18.4 10)
(86.5 18.4 10)
(86 24.8 10)
(86 18.4 10)
(86.5 24.8 10)
(86 25.3 10)
(86.5 25.3 10)
(91.3 24.8 10)
(91.8 24.8 10)
(91.8 18.4 10)
(91.3 25.3 10)
(91.8 25.3 10)
(92.8 33 13.5)
(92.8 49.3 13.5)
(85.45 33.45 13.5)
(85 33 13.5)
(92.35 33.45 13.5)
(92.35 48.85 13.5)
(85 49.3 13.5)
(85.45 48.85 13.5)
(88.9 44.0176 17)
(88.9 38.2824 17)
(86 34.5 10)
(86 34 10)
(86.5 34 10)
(91.3 34 10)
(91.3 34.5 10)
(86.5 34.5 10)
(91.8 34 10)
(91.8 34.5 10)
(86 40.9 10)
(86.5 40.9 10)
(91.3 40.9 10)
(91.8 40.9 10)
(91.3 41.4 10)
(86.5 41.4 10)
(86 47.8 10)
(86 41.4 10)
(86 48.3 10)
(86.5 47.8 10)
(86.5 48.3 10)
(91.3 47.8 10)
(91.8 47.8 10)
(91.8 41.4 10)
(91.3 48.3 10)
(91.8 48.3 10)
(92.8 56 13.5)
(92.8 72.3 13.5)
(85.45 56.45 13.5)
(85 56 13.5)
(92.35 56.45 13.5)
(92.35 71.85 13.5)
(85 72.3 13.5)
(85.45 71.85 13.5)
(88.9 67.0176 17)
(88.9 61.2824 17)
(86 57.5 10)
(86 57 10)
(86.5 57 10)
(91.3 57 10)
(91.3 57.5 10)
(86.5 57.5 10)
(91.8 57 10)
(91.8 57.5 10)
(86 63.9 10)
(86.5 63.9 10)
(91.3 63.9 10)
(91.8 63.9 10)
(91.3 64.4 10)
(86.5 64.4 10)
(86 70.8 10)
(86 64.4 10)
(86 71.3 10)
(86.5 70.8 10)
(86.5 71.3 10)
(91.3 70.8 10)
(91.8 70.8 10)
(91.8 64.4 10)
(91.3 71.3 10)
(91.8 71.3 10)
(92.8 77 13.5)
(92.8 93.3 13.5)
(85.45 77.45 13.5)
(85 77 13.5)
(92.35 77.45 13.5)
(92.35 92.85 13.5)
(85 93.3 13.5)
(85.45 92.85 13.5)
(88.9 88.0176 17)
(88.9 82.2824 17)
(86 78.5 10)
(86 78 10)
(86.5 78 10)
(91.3 78 10)
(91.3 78.5 10)
(86.5 78.5 10)
(91.8 78 10)
(91.8 78.5 10)
(86 84.9 10)
(86.5 84.9 10)
(91.3 84.9 10)
(91.8 84.9 10)
(91.3 85.4 10)
(86.5 85.4 10)
(86 91.8 10)
(86 85.4 10)
(86 92.3 10)
(86.5 91.8 10)
(86.5 92.3 10)
(91.3 91.8 10)
(91.8 91.8 10)
(91.8 85.4 10)
(91.3 92.3 10)
(91.8 92.3 10)
(117.8 10 10.5)
(117.8 26.3 10.5)
(110.45 10.45 10.5)
(110 10 10.5)
(117.35 10.45 10.5)
(117.35 25.85 10.5)
(110 26.3 10.5)
(110.45 25.85 10.5)
(113.9 15.2824 14)
(113.9 21.0176 14)
(109.4 72.1 10.1)
(109.1 65.7 10.1)
(117.3 72.1 10.1)
(117.3 65.7 10.1)
(113.35 65.7 11.6)
(117.3 65.7 10.2059)
(105.3 65.7 11.6)
(109.4 65.7 7)
(110.8 65.7 11.6)
(117.3 65.7 11.6)
(117.3 57.5 11.6)
(105.3 55.3 11.6)
(110.5 57.5 7)
(107.9 61.6 14.5)
(110.8 57.5 11.6)
(110.5 55.3 11.6)
(117.8 35 10.5)
(117.8 51.3 10.5)
(110.45 35.45 10.5)
(110 35 10.5)
(117.35 35.45 10.5)
(117.35 50.85 10.5)
(110 51.3 10.5)
(110.45 50.85 10.5)
(113.9 40.2824 14)
(113.9 46.0176 14)
(109.4 92.1 10.1)
(109.1 85.7 10.1)
(117.3 92.1 10.1)
(117.3 85.7 10.1)
(113.35 85.7 11.6)
(117.3 85.7 10.2059)
(105.3 85.7 11.6)
(109.4 85.7 7)
(110.8 85.7 11.6)
(117.3 85.7 11.6)
(117.3 77.5 11.6)
(105.3 75.3 11.6)
(110.5 77.5 7)
(107.9 81.6 14.5)
(110.8 77.5 11.6)
(110.5 75.3 11.6)
(126.9 10 10.5)
(143.2 10 10.5)
(126.9 17.8 10.5)
(127.35 10.45 10.5)
(127.35 17.35 10.5)
(142.75 10.45 10.5)
(143.2 17.8 10.5)
(142.75 17.35 10.5)
(132.182 13.9 14)
(137.918 13.9 14)
(126.9 25 10.5)
(143.2 25 10.5)
(126.9 32.8 10.5)
(127.35 25.45 10.5)
(127.35 32.35 10.5)
(142.75 25.45 10.5)
(143.2 32.8 10.5)
(142.75 32.35 10.5)
(132.182 28.9 14)
(137.918 28.9 14)
(126.9 40 10.5)
(143.2 40 10.5)
(126.9 47.8 10.5)
(127.35 40.45 10.5)
(127.35 47.35 10.5)
(142.75 40.45 10.5)
(143.2 47.8 10.5)
(142.75 47.35 10.5)
(132.182 43.9 14)
(137.918 43.9 14)
(126.9 55 10.5)
(143.2 55 10.5)
(126.9 62.8 10.5)
(127.35 55.45 10.5)
(127.35 62.35 10.5)
(142.75 55.45 10.5)
(143.2 62.8 10.5)
(142.75 62.35 10.5)
(132.182 58.9 14)
(137.918 58.9 14)
(126.9 70 10.5)
(143.2 70 10.5)
(127.35 77.35 10.5)
(126.9 77.8 10.5)
(127.35 70.45 10.5)
(142.75 70.45 10.5)
(143.2 77.8 10.5)
(142.75 77.35 10.5)
(132.182 73.9 14)
(137.918 73.9 14)
(126.9 85 10.5)
(143.2 85 10.5)
(127.35 92.35 10.5)
(126.9 92.8 10.5)
(127.35 85.45 10.5)
(142.75 85.45 10.5)
(143.2 92.8 10.5)
(142.75 92.35 10.5)
(132.182 88.9 14)
(137.918 88.9 14)
(154.4 27.1 10.1)
(154.1 20.7 10.1)
(162.3 27.1 10.1)
(162.3 20.7 10.1)
(158.35 20.7 11.6)
(162.3 20.7 10.2059)
(150.3 20.7 11.6)
(154.4 20.7 7)
(155.8 20.7 11.6)
(162.3 20.7 11.6)
(162.3 12.5 11.6)
(150.3 10.3 11.6)
(155.5 12.5 7)
(152.9 16.6 14.5)
(155.8 12.5 11.6)
(155.5 10.3 11.6)
(157.8 55 10.5)
(157.8 71.3 10.5)
(150 55 10.5)
(150.45 55.45 10.5)
(157.35 55.45 10.5)
(157.35 70.85 10.5)
(150 71.3 10.5)
(150.45 70.85 10.5)
(153.9 60.2824 14)
(153.9 66.0176 14)
(158.2 33.5 10.1)
(158.5 39.9 10.1)
(150.3 33.5 10.1)
(150.3 39.9 10.1)
(154.25 39.9 11.6)
(150.3 39.9 10.2059)
(162.3 39.9 11.6)
(158.2 39.9 7)
(156.8 39.9 11.6)
(150.3 39.9 11.6)
(150.3 48.1 11.6)
(162.3 50.3 11.6)
(157.1 48.1 7)
(159.7 44 14.5)
(156.8 48.1 11.6)
(157.1 50.3 11.6)
(157.8 78 10.5)
(157.8 94.3 10.5)
(150 78 10.5)
(150.45 78.45 10.5)
(157.35 78.45 10.5)
(157.35 93.85 10.5)
(150 94.3 10.5)
(150.45 93.85 10.5)
(153.9 83.2824 14)
(153.9 89.0176 14)
(169.4 27.1 10.1)
(169.1 20.7 10.1)
(177.3 27.1 10.1)
(177.3 20.7 10.1)
(173.35 20.7 11.6)
(177.3 20.7 10.2059)
(165.3 20.7 11.6)
(169.4 20.7 7)
(170.8 20.7 11.6)
(177.3 20.7 11.6)
(177.3 12.5 11.6)
(165.3 10.3 11.6)
(170.5 12.5 7)
(167.9 16.6 14.5)
(170.8 12.5 11.6)
(170.5 10.3 11.6)
(172.8 55 10.5)
(172.8 71.3 10.5)
(165 55 10.5)
(165.45 55.45 10.5)
(172.35 55.45 10.5)
(172.35 70.85 10.5)
(165 71.3 10.5)
(165.45 70.85 10.5)
(168.9 60.2824 14)
(168.9 66.0176 14)
(173.2 33.5 10.1)
(173.5 39.9 10.1)
(165.3 33.5 10.1)
(165.3 39.9 10.1)
(169.25 39.9 11.6)
(165.3 39.9 10.2059)
(177.3 39.9 11.6)
(173.2 39.9 7)
(171.8 39.9 11.6)
(165.3 39.9 11.6)
(165.3 48.1 11.6)
(177.3 50.3 11.6)
(172.1 48.1 7)
(174.7 44 14.5)
(171.8 48.1 11.6)
(172.1 50.3 11.6)
(172.8 78 10.5)
(172.8 94.3 10.5)
(165 78 10.5)
(165.45 78.45 10.5)
(172.35 78.45 10.5)
(172.35 93.85 10.5)
(165 94.3 10.5)
(165.45 93.85 10.5)
(168.9 83.2824 14)
(168.9 89.0176 14)
(184.4 27.1 10.1)
(184.1 20.7 10.1)
(192.3 27.1 10.1)
(192.3 20.7 10.1)
(188.35 20.7 11.6)
(192.3 20.7 10.2059)
(180.3 20.7 11.6)
(184.4 20.7 7)
(185.8 20.7 11.6)
(192.3 20.7 11.6)
(192.3 12.5 11.6)
(180.3 10.3 11.6)
(185.5 12.5 7)
(182.9 16.6 14.5)
(185.8 12.5 11.6)
(185.5 10.3 11.6)
(187.8 55 10.5)
(187.8 71.3 10.5)
(180 55 10.5)
(180.45 55.45 10.5)
(187.35 55.45 10.5)
(187.35 70.85 10.5)
(180 71.3 10.5)
(180.45 70.85 10.5)
(183.9 60.2824 14)
(183.9 66.0176 14)
(188.2 33.5 10.1)
(188.5 39.9 10.1)
(180.3 33.5 10.1)
(180.3 39.9 10.1)
(184.25 39.9 11.6)
(180.3 39.9 10.2059)
(192.3 39.9 11.6)
(188.2 39.9 7)
(186.8 39.9 11.6)
(180.3 39.9 11.6)
(180.3 48.1 11.6)
(192.3 50.3 11.6)
(187.1 48.1 7)
(189.7 44 14.5)
(186.8 48.1 11.6)
(187.1 50.3 11.6)
(187.8 78 10.5)
(187.8 94.3 10.5)
(180 78 10.5)
(180.45 78.45 10.5)
(187.35 78.45 10.5)
(187.35 93.85 10.5)
(180 94.3 10.5)
(180.45 93.85 10.5)
(183.9 83.2824 14)
(183.9 89.0176 14)
)

// edges

1310
(
(400 401)
(401 0)
(0 400)
(400 403)
(406 401)
(403 406)
(406 1)
(1 0)
(1 403)
(406 2)
(2 401)
(3 403)
(400 3)
(404 5)
(5 4)
(4 405)
(402 6)
(6 5)
(407 7)
(7 6)
(4 7)
(408 2)
(3 409)
(420 9)
(9 8)
(8 421)
(422 10)
(10 9)
(8 11)
(11 431)
(11 10)
(429 13)
(13 12)
(12 430)
(12 14)
(14 433)
(14 15)
(15 432)
(15 13)
(424 17)
(17 16)
(16 426)
(427 18)
(18 17)
(16 19)
(19 428)
(19 18)
(418 21)
(21 20)
(20 419)
(425 22)
(22 21)
(20 23)
(23 423)
(23 22)
(413 25)
(25 24)
(24 414)
(415 26)
(26 25)
(24 27)
(27 417)
(27 26)
(411 29)
(29 28)
(28 410)
(412 30)
(30 29)
(28 31)
(31 416)
(31 30)
(434 435)
(435 32)
(32 434)
(434 437)
(440 435)
(437 440)
(440 33)
(33 32)
(33 437)
(440 34)
(34 435)
(35 437)
(434 35)
(438 37)
(37 36)
(36 439)
(436 38)
(38 37)
(441 39)
(39 38)
(36 39)
(442 34)
(35 443)
(454 41)
(41 40)
(40 455)
(456 42)
(42 41)
(40 43)
(43 465)
(43 42)
(463 45)
(45 44)
(44 464)
(44 46)
(46 467)
(46 47)
(47 466)
(47 45)
(458 49)
(49 48)
(48 461)
(460 50)
(50 49)
(48 51)
(51 462)
(51 50)
(452 53)
(53 52)
(52 453)
(459 54)
(54 53)
(52 55)
(55 457)
(55 54)
(447 57)
(57 56)
(56 450)
(448 58)
(58 57)
(56 59)
(59 451)
(59 58)
(445 61)
(61 60)
(60 446)
(444 62)
(62 61)
(60 63)
(63 449)
(63 62)
(468 469)
(469 64)
(64 468)
(468 471)
(474 469)
(471 474)
(474 65)
(65 64)
(65 471)
(474 66)
(66 469)
(67 471)
(468 67)
(472 69)
(69 68)
(68 473)
(470 70)
(70 69)
(475 71)
(71 70)
(68 71)
(476 66)
(67 477)
(488 73)
(73 72)
(72 489)
(490 74)
(74 73)
(72 75)
(75 499)
(75 74)
(497 77)
(77 76)
(76 498)
(76 78)
(78 501)
(78 79)
(79 500)
(79 77)
(492 81)
(81 80)
(80 495)
(494 82)
(82 81)
(80 83)
(83 496)
(83 82)
(486 85)
(85 84)
(84 487)
(493 86)
(86 85)
(84 87)
(87 491)
(87 86)
(481 89)
(89 88)
(88 484)
(482 90)
(90 89)
(88 91)
(91 485)
(91 90)
(479 93)
(93 92)
(92 480)
(478 94)
(94 93)
(92 95)
(95 483)
(95 94)
(502 503)
(503 96)
(96 502)
(502 505)
(508 503)
(505 508)
(508 97)
(97 96)
(97 505)
(508 98)
(98 503)
(99 505)
(502 99)
(506 101)
(101 100)
(100 507)
(504 102)
(102 101)
(509 103)
(103 102)
(100 103)
(510 98)
(99 511)
(522 105)
(105 104)
(104 523)
(524 106)
(106 105)
(104 107)
(107 533)
(107 106)
(531 109)
(109 108)
(108 532)
(108 110)
(110 535)
(110 111)
(111 534)
(111 109)
(526 113)
(113 112)
(112 529)
(528 114)
(114 113)
(112 115)
(115 530)
(115 114)
(520 117)
(117 116)
(116 521)
(527 118)
(118 117)
(116 119)
(119 525)
(119 118)
(515 121)
(121 120)
(120 518)
(516 122)
(122 121)
(120 123)
(123 519)
(123 122)
(513 125)
(125 124)
(124 514)
(512 126)
(126 125)
(124 127)
(127 517)
(127 126)
(536 537)
(128 536)
(537 128)
(536 539)
(542 537)
(539 542)
(128 129)
(129 539)
(542 129)
(130 539)
(536 130)
(131 537)
(542 131)
(540 133)
(133 132)
(132 541)
(132 134)
(134 543)
(134 135)
(135 538)
(135 133)
(130 544)
(131 545)
(136 137)
(137 138)
(138 136)
(547 137)
(139 549)
(136 139)
(550 138)
(551 139)
(140 552)
(553 140)
(142 141)
(552 142)
(141 554)
(554 550)
(551 555)
(556 143)
(144 548)
(143 144)
(145 553)
(546 145)
(144 145)
(550 555)
(140 146)
(146 557)
(147 146)
(558 147)
(143 558)
(149 555)
(148 149)
(559 148)
(141 559)
(150 151)
(151 559)
(142 150)
(560 152)
(152 150)
(556 560)
(153 556)
(149 153)
(147 561)
(153 148)
(152 151)
(562 563)
(154 562)
(563 154)
(562 565)
(568 563)
(565 568)
(154 155)
(155 565)
(568 155)
(156 565)
(562 156)
(157 563)
(568 157)
(566 159)
(159 158)
(158 567)
(158 160)
(160 569)
(160 161)
(161 564)
(161 159)
(156 570)
(157 571)
(162 163)
(163 164)
(164 162)
(573 163)
(165 575)
(162 165)
(576 164)
(577 165)
(166 578)
(579 166)
(168 167)
(578 168)
(167 580)
(580 576)
(577 581)
(582 169)
(170 574)
(169 170)
(171 579)
(572 171)
(170 171)
(576 581)
(166 172)
(172 583)
(173 172)
(584 173)
(169 584)
(175 581)
(174 175)
(585 174)
(167 585)
(176 177)
(177 585)
(168 176)
(586 178)
(178 176)
(582 586)
(179 582)
(175 179)
(173 587)
(179 174)
(178 177)
(588 589)
(180 588)
(589 180)
(588 590)
(594 589)
(590 594)
(180 181)
(181 590)
(594 181)
(182 590)
(588 182)
(183 589)
(594 183)
(591 185)
(185 184)
(184 593)
(184 186)
(186 595)
(186 187)
(187 592)
(187 185)
(182 596)
(183 597)
(598 599)
(188 598)
(599 188)
(598 600)
(604 599)
(600 604)
(188 189)
(189 600)
(604 189)
(190 600)
(598 190)
(191 599)
(604 191)
(601 193)
(193 192)
(192 603)
(192 194)
(194 605)
(194 195)
(195 602)
(195 193)
(190 606)
(191 607)
(608 609)
(196 608)
(609 196)
(608 610)
(614 609)
(610 614)
(196 197)
(197 610)
(614 197)
(198 610)
(608 198)
(199 609)
(614 199)
(611 201)
(201 200)
(200 613)
(200 202)
(202 615)
(202 203)
(203 612)
(203 201)
(198 616)
(199 617)
(618 619)
(204 618)
(619 204)
(618 620)
(624 619)
(620 624)
(204 205)
(205 620)
(624 205)
(206 620)
(618 206)
(207 619)
(624 207)
(621 209)
(209 208)
(208 623)
(208 210)
(210 625)
(210 211)
(211 622)
(211 209)
(206 626)
(207 627)
(628 629)
(212 628)
(629 212)
(628 631)
(634 629)
(631 634)
(212 213)
(213 631)
(634 213)
(214 631)
(628 214)
(215 629)
(634 215)
(632 217)
(217 216)
(216 633)
(216 218)
(218 635)
(218 219)
(219 630)
(219 217)
(214 636)
(215 637)
(638 639)
(220 638)
(639 220)
(638 641)
(644 639)
(641 644)
(220 221)
(221 641)
(644 221)
(222 641)
(638 222)
(223 639)
(644 223)
(642 225)
(225 224)
(224 643)
(224 226)
(226 645)
(226 227)
(227 640)
(227 225)
(222 646)
(223 647)
(228 229)
(229 230)
(230 228)
(649 229)
(231 651)
(228 231)
(652 230)
(653 231)
(232 654)
(655 232)
(234 233)
(654 234)
(233 656)
(656 652)
(653 657)
(658 235)
(236 650)
(235 236)
(237 655)
(648 237)
(236 237)
(652 657)
(232 238)
(238 659)
(239 238)
(660 239)
(235 660)
(241 657)
(240 241)
(661 240)
(233 661)
(242 243)
(243 661)
(234 242)
(662 244)
(244 242)
(658 662)
(245 658)
(241 245)
(239 663)
(245 240)
(244 243)
(664 665)
(246 664)
(665 246)
(664 666)
(670 665)
(666 670)
(246 247)
(247 666)
(670 247)
(248 666)
(664 248)
(249 665)
(670 249)
(668 251)
(251 250)
(250 669)
(250 252)
(252 671)
(252 253)
(253 667)
(253 251)
(248 672)
(249 673)
(254 255)
(255 256)
(256 254)
(675 255)
(257 677)
(254 257)
(678 256)
(679 257)
(258 680)
(681 258)
(260 259)
(680 260)
(259 682)
(682 678)
(679 683)
(684 261)
(262 676)
(261 262)
(263 681)
(674 263)
(262 263)
(678 683)
(258 264)
(264 685)
(265 264)
(686 265)
(261 686)
(267 683)
(266 267)
(687 266)
(259 687)
(268 269)
(269 687)
(260 268)
(688 270)
(270 268)
(684 688)
(271 684)
(267 271)
(265 689)
(271 266)
(270 269)
(690 691)
(272 690)
(691 272)
(690 692)
(696 691)
(692 696)
(272 273)
(273 692)
(696 273)
(274 692)
(690 274)
(275 691)
(696 275)
(694 277)
(277 276)
(276 695)
(276 278)
(278 697)
(278 279)
(279 693)
(279 277)
(274 698)
(275 699)
(280 281)
(281 282)
(282 280)
(701 281)
(283 703)
(280 283)
(704 282)
(705 283)
(284 706)
(707 284)
(286 285)
(706 286)
(285 708)
(708 704)
(705 709)
(710 287)
(288 702)
(287 288)
(289 707)
(700 289)
(288 289)
(704 709)
(284 290)
(290 711)
(291 290)
(712 291)
(287 712)
(293 709)
(292 293)
(713 292)
(285 713)
(294 295)
(295 713)
(286 294)
(714 296)
(296 294)
(710 714)
(297 710)
(293 297)
(291 715)
(297 292)
(296 295)
(716 717)
(298 716)
(717 298)
(716 718)
(722 717)
(718 722)
(298 299)
(299 718)
(722 299)
(300 718)
(716 300)
(301 717)
(722 301)
(720 303)
(303 302)
(302 721)
(302 304)
(304 723)
(304 305)
(305 719)
(305 303)
(300 724)
(301 725)
(306 307)
(307 308)
(308 306)
(727 307)
(309 729)
(306 309)
(730 308)
(731 309)
(310 732)
(733 310)
(312 311)
(732 312)
(311 734)
(734 730)
(731 735)
(736 313)
(314 728)
(313 314)
(315 733)
(726 315)
(314 315)
(730 735)
(310 316)
(316 737)
(317 316)
(738 317)
(313 738)
(319 735)
(318 319)
(739 318)
(311 739)
(320 321)
(321 739)
(312 320)
(740 322)
(322 320)
(736 740)
(323 736)
(319 323)
(317 741)
(323 318)
(322 321)
(742 743)
(324 742)
(743 324)
(742 744)
(748 743)
(744 748)
(324 325)
(325 744)
(748 325)
(326 744)
(742 326)
(327 743)
(748 327)
(746 329)
(329 328)
(328 747)
(328 330)
(330 749)
(330 331)
(331 745)
(331 329)
(326 750)
(327 751)
(332 333)
(333 334)
(334 332)
(753 333)
(335 755)
(332 335)
(756 334)
(757 335)
(336 758)
(759 336)
(338 337)
(758 338)
(337 760)
(760 756)
(757 761)
(762 339)
(340 754)
(339 340)
(341 759)
(752 341)
(340 341)
(756 761)
(336 342)
(342 763)
(343 342)
(764 343)
(339 764)
(345 761)
(344 345)
(765 344)
(337 765)
(346 347)
(347 765)
(338 346)
(766 348)
(348 346)
(762 766)
(349 762)
(345 349)
(343 767)
(349 344)
(348 347)
(768 769)
(350 768)
(769 350)
(768 770)
(774 769)
(770 774)
(350 351)
(351 770)
(774 351)
(352 770)
(768 352)
(353 769)
(774 353)
(772 355)
(355 354)
(354 773)
(354 356)
(356 775)
(356 357)
(357 771)
(357 355)
(352 776)
(353 777)
(358 359)
(359 360)
(360 358)
(779 359)
(361 781)
(358 361)
(782 360)
(783 361)
(362 784)
(785 362)
(364 363)
(784 364)
(363 786)
(786 782)
(783 787)
(788 365)
(366 780)
(365 366)
(367 785)
(778 367)
(366 367)
(782 787)
(362 368)
(368 789)
(369 368)
(790 369)
(365 790)
(371 787)
(370 371)
(791 370)
(363 791)
(372 373)
(373 791)
(364 372)
(792 374)
(374 372)
(788 792)
(375 788)
(371 375)
(369 793)
(375 370)
(374 373)
(794 795)
(376 794)
(795 376)
(794 796)
(800 795)
(796 800)
(376 377)
(377 796)
(800 377)
(378 796)
(794 378)
(379 795)
(800 379)
(798 381)
(381 380)
(380 799)
(380 382)
(382 801)
(382 383)
(383 797)
(383 381)
(378 802)
(379 803)
(402 404)
(404 405)
(405 407)
(407 402)
(401 408)
(408 406)
(409 400)
(403 409)
(411 410)
(412 411)
(413 414)
(410 416)
(415 413)
(414 417)
(416 412)
(418 419)
(417 415)
(420 421)
(419 423)
(422 420)
(423 425)
(424 426)
(427 424)
(428 427)
(431 422)
(429 430)
(426 428)
(432 429)
(433 432)
(430 433)
(421 431)
(425 418)
(436 438)
(438 439)
(439 441)
(441 436)
(435 442)
(442 440)
(443 434)
(437 443)
(444 445)
(445 446)
(446 449)
(448 447)
(447 450)
(450 451)
(449 444)
(452 453)
(451 448)
(454 455)
(453 457)
(456 454)
(460 458)
(457 459)
(458 461)
(462 460)
(465 456)
(463 464)
(461 462)
(466 463)
(467 466)
(464 467)
(455 465)
(459 452)
(470 472)
(472 473)
(473 475)
(475 470)
(469 476)
(476 474)
(477 468)
(471 477)
(478 479)
(479 480)
(480 483)
(482 481)
(481 484)
(484 485)
(483 478)
(486 487)
(485 482)
(488 489)
(487 491)
(490 488)
(494 492)
(491 493)
(492 495)
(496 494)
(499 490)
(497 498)
(495 496)
(500 497)
(501 500)
(498 501)
(489 499)
(493 486)
(504 506)
(506 507)
(507 509)
(509 504)
(503 510)
(510 508)
(511 502)
(505 511)
(512 513)
(513 514)
(514 517)
(516 515)
(515 518)
(518 519)
(517 512)
(520 521)
(519 516)
(522 523)
(521 525)
(524 522)
(528 526)
(525 527)
(526 529)
(530 528)
(533 524)
(531 532)
(529 530)
(534 531)
(535 534)
(532 535)
(523 533)
(527 520)
(538 540)
(540 541)
(541 543)
(543 538)
(544 536)
(539 544)
(537 545)
(545 542)
(384 547)
(546 384)
(549 548)
(548 546)
(547 550)
(550 551)
(551 549)
(384 553)
(555 556)
(557 552)
(554 559)
(385 560)
(561 385)
(557 561)
(385 558)
(559 560)
(564 566)
(566 567)
(567 569)
(569 564)
(570 562)
(565 570)
(563 571)
(571 568)
(386 573)
(572 386)
(575 574)
(574 572)
(573 576)
(576 577)
(577 575)
(386 579)
(581 582)
(583 578)
(580 585)
(387 586)
(587 387)
(583 587)
(387 584)
(585 586)
(592 591)
(591 593)
(593 595)
(595 592)
(596 588)
(590 596)
(589 597)
(597 594)
(602 601)
(601 603)
(603 605)
(605 602)
(606 598)
(600 606)
(599 607)
(607 604)
(612 611)
(611 613)
(613 615)
(615 612)
(616 608)
(610 616)
(609 617)
(617 614)
(622 621)
(621 623)
(623 625)
(625 622)
(626 618)
(620 626)
(619 627)
(627 624)
(630 632)
(632 633)
(633 635)
(635 630)
(636 628)
(631 636)
(629 637)
(637 634)
(640 642)
(642 643)
(643 645)
(645 640)
(646 638)
(641 646)
(639 647)
(647 644)
(388 649)
(648 388)
(651 650)
(650 648)
(649 652)
(652 653)
(653 651)
(388 655)
(657 658)
(659 654)
(656 661)
(389 662)
(663 389)
(659 663)
(389 660)
(661 662)
(667 668)
(668 669)
(669 671)
(671 667)
(672 664)
(666 672)
(665 673)
(673 670)
(390 675)
(674 390)
(677 676)
(676 674)
(675 678)
(678 679)
(679 677)
(390 681)
(683 684)
(685 680)
(682 687)
(391 688)
(689 391)
(685 689)
(391 686)
(687 688)
(693 694)
(694 695)
(695 697)
(697 693)
(698 690)
(692 698)
(691 699)
(699 696)
(392 701)
(700 392)
(703 702)
(702 700)
(701 704)
(704 705)
(705 703)
(392 707)
(709 710)
(711 706)
(708 713)
(393 714)
(715 393)
(711 715)
(393 712)
(713 714)
(719 720)
(720 721)
(721 723)
(723 719)
(724 716)
(718 724)
(717 725)
(725 722)
(394 727)
(726 394)
(729 728)
(728 726)
(727 730)
(730 731)
(731 729)
(394 733)
(735 736)
(737 732)
(734 739)
(395 740)
(741 395)
(737 741)
(395 738)
(739 740)
(745 746)
(746 747)
(747 749)
(749 745)
(750 742)
(744 750)
(743 751)
(751 748)
(396 753)
(752 396)
(755 754)
(754 752)
(753 756)
(756 757)
(757 755)
(396 759)
(761 762)
(763 758)
(760 765)
(397 766)
(767 397)
(763 767)
(397 764)
(765 766)
(771 772)
(772 773)
(773 775)
(775 771)
(776 768)
(770 776)
(769 777)
(777 774)
(398 779)
(778 398)
(781 780)
(780 778)
(779 782)
(782 783)
(783 781)
(398 785)
(787 788)
(789 784)
(786 791)
(399 792)
(793 399)
(789 793)
(399 790)
(791 792)
(797 798)
(798 799)
(799 801)
(801 797)
(802 794)
(796 802)
(795 803)
(803 800)
)

// concaveStart mixedStart nonFeatureStart
384 400 804
// internalStart flatStart openStart multipleStart
942 1310 1310 1310
// normals

1456
(
(1 0 0)
(0 0 -1)
(-3.02319e-07 0.552338 0.833621)
(-3.02319e-07 -0.552338 0.833621)
(0 -0 -1)
(0 -1 0)
(0 0 -1)
(0 1 0)
(0 0 -1)
(-1 0 0)
(3.02319e-07 0.552338 0.833621)
(-0 0.552338 0.83362)
(0 -0.552338 0.83362)
(3.02319e-07 -0.552338 0.833621)
(-0.66791 0 0.744242)
(0.66791 0 0.744242)
(-0.66791 0 0.744242)
(0.66791 0 0.744242)
(1 0 0)
(0 -1 0)
(0 0 -1)
(1 0 -0)
(0 1 0)
(0 -1 0)
(-1 0 0)
(0 0 -1)
(-1 0 0)
(0 1 0)
(0 0 -1)
(-0 0 -1)
(0 -1 0)
(-1 0 0)
(0 -0 -1)
(0 -1 0)
(1 0 0)
(-1 0 0)
(0 1 0)
(-0 0 -1)
(1 0 -0)
(0 1 0)
(0 -1 0)
(-1 0 0)
(0 -0 -1)
(0 -1 0)
(1 0 0)
(1 0 -0)
(0 1 0)
(-0 0 -1)
(0 1 0)
(-1 0 0)
(0 -1 0)
(-1 0 0)
(0 -0 -1)
(0 -1 0)
(1 0 0)
(-1 0 0)
(0 1 0)
(-0 0 -1)
(1 0 -0)
(0 1 0)
(0 -1 0)
(-1 0 0)
(0 -0 -1)
(0 -1 0)
(1 0 0)
(-1 0 0)
(0 1 0)
(-0 0 -1)
(1 0 -0)
(0 1 0)
(0 -1 0)
(-1 0 0)
(0 -0 -1)
(0 -1 0)
(1 0 0)
(-1 0 0)
(0 1 0)
(-0 0 -1)
(1 0 -0)
(0 1 0)
(0 -1 0)
(-1 0 0)
(0 -0 -1)
(0 -1 0)
(1 0 0)
(-1 0 0)
(0 1 0)
(-0 0 -1)
(1 0 -0)
(0 1 0)
(1 0 0)
(0 0 -1)
(-4.77403e-07 0.552338 0.833621)
(-1.27236e-07 -0.552337 0.833621)
(0 -0 -1)
(0 -1 0)
(0 0 -1)
(0 1 0)
(0 0 -1)
(-1 0 0)
(4.77403e-07 0.552338 0.833621)
(-0 0.552338 0.83362)
(0 -0.552338 0.833621)
(1.27236e-07 -0.552337 0.833621)
(-0.66791 0 0.744242)
(0.66791 0 0.744242)
(-0.66791 0 0.744242)
(0.66791 0 0.744242)
(1 0 0)
(0 -1 0)
(0 0 -1)
(1 0 -0)
(0 1 0)
(0 -1 0)
(-1 0 0)
(0 0 -1)
(-1 0 0)
(0 1 0)
(0 0 -1)
(-0 0 -1)
(0 -1 0)
(-1 0 0)
(0 -0 -1)
(0 -1 0)
(1 0 0)
(-1 0 0)
(0 1 0)
(-0 0 -1)
(1 0 -0)
(0 1 0)
(0 -1 0)
(-1 0 0)
(0 -0 -1)
(0 -1 0)
(1 0 0)
(1 0 -0)
(0 1 0)
(-0 0 -1)
(0 1 0)
(-1 0 0)
(0 -1 0)
(-1 0 0)
(0 -0 -1)
(0 -1 0)
(1 0 0)
(-1 0 0)
(0 1 0)
(-0 0 -1)
(1 0 -0)
(0 1 0)
(0 -1 0)
(-1 0 0)
(0 -0 -1)
(0 -1 0)
(1 0 0)
(-1 0 0)
(0 1 0)
(-0 0 -1)
(1 0 -0)
(0 1 0)
(0 -1 0)
(-1 0 0)
(0 -0 -1)
(0 -1 0)
(1 0 0)
(-1 0 0)
(0 1 0)
(-0 0 -1)
(1 0 -0)
(0 1 0)
(0 -1 0)
(-1 0 0)
(0 -0 -1)
(0 -1 0)
(1 0 0)
(-1 0 0)
(0 1 0)
(-0 0 -1)
(1 0 -0)
(0 1 0)
(1 0 0)
(0 0 -1)
(-1.27236e-07 0.552337 0.833621)
(-1.27236e-07 -0.552337 0.833621)
(0 -0 -1)
(0 -1 0)
(0 0 -1)
(0 1 0)
(0 0 -1)
(-1 0 0)
(1.27236e-07 0.552337 0.833621)
(-0 0.552338 0.833621)
(0 -0.552338 0.833621)
(1.27236e-07 -0.552337 0.833621)
(-0.66791 0 0.744242)
(0.66791 0 0.744242)
(-0.66791 0 0.744242)
(0.66791 0 0.744242)
(1 0 0)
(0 -1 0)
(0 0 -1)
(1 0 -0)
(0 1 0)
(0 -1 0)
(-1 0 0)
(0 0 -1)
(-1 0 0)
(0 1 0)
(0 0 -1)
(-0 0 -1)
(0 -1 0)
(-1 0 0)
(0 -0 -1)
(0 -1 0)
(1 0 0)
(-1 0 0)
(0 1 0)
(-0 0 -1)
(1 0 -0)
(0 1 0)
(0 -1 0)
(-1 0 0)
(0 -0 -1)
(0 -1 0)
(1 0 0)
(1 0 -0)
(0 1 0)
(-0 0 -1)
(0 1 0)
(-1 0 0)
(0 -1 0)
(-1 0 0)
(0 -0 -1)
(0 -1 0)
(1 0 0)
(-1 0 0)
(0 1 0)
(-0 0 -1)
(1 0 -0)
(0 1 0)
(0 -1 0)
(-1 0 0)
(0 -0 -1)
(0 -1 0)
(1 0 0)
(-1 0 0)
(0 1 0)
(-0 0 -1)
(1 0 -0)
(0 1 0)
(0 -1 0)
(-1 0 0)
(0 -0 -1)
(0 -1 0)
(1 0 0)
(-1 0 0)
(0 1 0)
(-0 0 -1)
(1 0 -0)
(0 1 0)
(0 -1 0)
(-1 0 0)
(0 -0 -1)
(0 -1 0)
(1 0 0)
(-1 0 0)
(0 1 0)
(-0 0 -1)
(1 0 -0)
(0 1 0)
(1 0 0)
(0 0 -1)
(-1.27236e-07 0.552337 0.833621)