/*--------------------------------*- C++ -*----------------------------------*\
  =========                 |
  \\      /  F ield         | OpenFOAM: The Open Source CFD Toolbox
   \\    /   O peration     | Website:  https://openfoam.org
    \\  /    A nd           | Version:  6
     \\/     M anipulation  |
\*---------------------------------------------------------------------------*/
FoamFile
{
    version     2.0;
    format      ascii;
    class       extendedFeatureEdgeMesh;
    location    "constant/extendedFeatureEdgeMesh";
    object      ground.extendedFeatureEdgeMesh;
}
// * * * * * * * * * * * * * * * * * * * * * * * * * * * * * * * * * * * * * //

// points
10((100 100 0) (100 0 0) (112 0 7) (112 100 7) (240 0 7) (240 100 7) (240 0 0) (240 100 0) (110 0 5) (110 100 5))
// edges

14
(
(0 1)
(1 8)
(9 0)
(8 2)
(2 3)
(3 9)
(2 4)
(4 5)
(5 3)
(4 6)
(6 7)
(7 5)
(6 1)
(0 7)
)

// concaveStart mixedStart nonFeatureStart
8 8 8
// internalStart flatStart openStart multipleStart
14 14 14 14
// normals

16
(
(-0.447214 0 0.894427)
(0 0 -1)
(0 -1 0)
(-0.447214 0 0.894427)
(0 1 0)
(-0.707107 0 0.707107)
(0 -1 0)
(-0.707107 0 0.707107)
(0 0 1)
(0 1 0)
(-0 -1 -0)
(0 -0 1)
(1 0 0)
(0 1 0)
(1 0 0)
(0 0 -1)
)

// normal volume types

16
(
0
0
0
0
0
0
0
0
0
0
0
0
0
0
0
0
)

// normalDirections

14
(
2(1 -1)
2(1 -1)
2(1 -1)
2(1 -1)
2(1 -1)
2(1 -1)
2(1 -1)
2(1 -1)
2(1 -1)
2(1 -1)
2(1 -1)
2(1 -1)
2(1 -1)
2(1 -1)
)

// edgeNormals

14
(
2(0 1)
2(0 2)
2(3 4)
2(5 6)
2(7 8)
2(7 9)
2(8 10)
2(11 12)
2(11 13)
2(12 10)
2(14 15)
2(14 13)
2(15 2)
2(1 4)
)

// featurePointNormals

8
(
3(0 1 4)
3(0 1 2)
3(5 6 8)
3(7 8 9)
3(8 10 12)
3(11 12 13)
3(12 10 15)
3(14 15 13)
)

// featurePointEdges

8
(
3(2 13 0)
3(0 12 1)
3(4 6 3)
3(4 8 5)
3(7 9 6)
3(7 11 8)
3(10 12 9)
3(10 13 11)
)

// regionEdges
0()


// ************************************************************************* //
